25
Properties=species:S:1:pos:R:3 pbc="F F F"
C       -3.15165498       0.70419999       0.05964889
C       -2.80204177      -0.61379811       0.27193356
C       -1.52063408      -1.06278184       0.04479869
C       -0.57274084      -0.18688086      -0.40027631
C       -0.89759121       1.13660344      -0.62022231
C       -2.18590774       1.57997366      -0.39006720
O       -2.48728713       2.91185484      -0.61807712
C        0.64471464      -0.82598963      -0.56736663
C        0.39453391      -2.13332233      -0.20315605
N       -0.90344260      -2.25047866       0.15807242
C        1.92559472      -0.23761555      -1.03245533
C        2.60392856       0.57890951       0.02362821
N        2.93195726      -0.16519794       1.20846361
H       -4.14446028       1.09911281       0.22496693
H       -3.58865757      -1.29663619       0.63148492
H       -0.17521385       1.85226311      -0.97053336
H       -2.84329075       3.43229932       0.18557463
H        1.11364957      -2.93990676      -0.20331854
H       -1.42070370      -3.10626932       0.48733676
H        1.78272123       0.41331104      -1.91862129
H        2.64007197      -1.02605914      -1.34460151
H        2.06320047       1.49984134       0.29833395
H        3.57824288       0.92598630      -0.42337072
H        3.72270748      -0.82502793       1.02372269
H        3.29230380       0.53560893       1.91223822
